examples/test_perturbation_outputs/pert_min_cost/pglib_opf_case300_ieee.m
%% MATPOWER Case Format : Version 2
function mpc = pglib_opf_case300_ieee
mpc.version = '2';

%%-----  Power Flow Data  -----%%
%% system MVA base
mpc.baseMVA = 100.0;
%% bus data
%    bus_i    type    Pd    Qd    Gs    Bs    area    Vm    Va    baseKV    zone    Vmax    Vmin
mpc.bus = [
	1	1	90.0	49.0	0.0	0.0	1	1.0	0.0	115.0	1	1.06	0.94				
	2	1	56.00000000000001	15.0	0.0	0.0	1	1.0	0.0	115.0	1	1.06	0.94				
	3	1	20.0	0.0	0.0	0.0	1	1.0	0.0	230.0	1	1.06	0.94				
	4	1	0.0	0.0	0.0	0.0	1	1.0	0.0	345.0	1	1.06	0.94				
	5	1	353.0	130.0	0.0	0.0	1	1.0	0.0	115.0	1	1.06	0.94				
	6	1	120.0	41.0	0.0	0.0	1	1.0	0.0	115.0	1	1.06	0.94				
	7	1	0.0	0.0	0.0	0.0	1	1.0	0.0	230.0	1	1.06	0.94				
	8	2	63.0	14.000000000000002	0.0	0.0	1	1.0	0.0	115.0	1	1.06	0.94				
	9	1	96.0	43.0	0.0	0.0	1	1.0	0.0	115.0	1	1.06	0.94				
	10	2	153.0	33.0	0.0	0.0	1	1.0	0.0	230.0	1	1.06	0.94				
	11	1	83.0	21.0	0.0	0.0	1	1.0	0.0	115.0	1	1.06	0.94				
	12	1	0.0	0.0	0.0	0.0	1	1.0	0.0	230.0	1	1.06	0.94				
	13	1	57.99999999999999	10.0	0.0	0.0	1	1.0	0.0	115.0	1	1.06	0.94				
	14	1	160.0	60.0	0.0	0.0	1	1.0	0.0	115.0	1	1.06	0.94				
	15	1	126.70000000000002	23.0	0.0	0.0	1	1.0	0.0	115.0	1	1.06	0.94				
	16	1	0.0	0.0	0.0	0.0	1	1.0	0.0	345.0	1	1.06	0.94				
	17	1	561.0	220.00000000000003	0.0	0.0	1	1.0	0.0	115.0	1	1.06	0.94				
	19	1	0.0	0.0	0.0	0.0	1	1.0	0.0	230.0	1	1.06	0.94				
	20	2	605.0	120.0	0.0	0.0	1	1.0	0.0	115.0	1	1.06	0.94				
	21	1	77.0	1.0	0.0	0.0	1	1.0	0.0	230.0	1	1.06	0.94				
	22	1	81.0	23.0	0.0	0.0	1	1.0	0.0	115.0	1	1.06	0.94				
	23	1	21.0	7.000000000000001	0.0	0.0	1	1.0	0.0	115.0	1	1.06	0.94				
	24	1	0.0	0.0	0.0	0.0	1	1.0	0.0	230.0	1	1.06	0.94				
	25	1	45.0	12.0	0.0	0.0	1	1.0	0.0	115.0	1	1.06	0.94				
	26	1	28.000000000000004	9.0	0.0	0.0	1	1.0	0.0	115.0	1	1.06	0.94				
	27	1	69.0	13.0	0.0	0.0	1	1.0	0.0	115.0	1	1.06	0.94				
	33	1	55.00000000000001	6.0	0.0	0.0	1	1.0	0.0	115.0	1	1.06	0.94				
	34	1	0.0	0.0	0.0	0.0	1	1.0	0.0	345.0	1	1.06	0.94				
	35	1	0.0	0.0	0.0	0.0	1	1.0	0.0	115.0	1	1.06	0.94				
	36	1	0.0	0.0	0.0	0.0	1	1.0	0.0	230.0	1	1.06	0.94				
	37	1	85.0	32.0	0.0	0.0	1	1.0	0.0	115.0	1	1.06	0.94				
	38	1	155.0	18.0	0.0	0.0	1	1.0	0.0	115.0	1	1.06	0.94				
	39	1	0.0	0.0	0.0	0.0	1	1.0	0.0	345.0	1	1.06	0.94				
	40	1	46.0	-21.0	0.0	0.0	1	1.0	0.0	115.0	1	1.06	0.94				
	41	1	86.0	0.0	0.0	0.0	1	1.0	0.0	115.0	1	1.06	0.94				
	42	1	0.0	0.0	0.0	0.0	1	1.0	0.0	345.0	1	1.06	0.94				
	43	1	39.0	9.0	0.0	0.0	1	1.0	0.0	115.0	1	1.06	0.94				
	44	1	195.0	28.999999999999996	0.0	0.0	1	1.0	0.0	115.0	1	1.06	0.94				
	45	1	0.0	0.0	0.0	0.0	1	1.0	0.0	230.0	1	1.06	0.94				
	46	1	0.0	0.0	0.0	0.0	1	1.0	0.0	345.0	1	1.06	0.94				
	47	1	57.99999999999999	11.8	0.0	0.0	1	1.0	0.0	115.0	1	1.06	0.94				
	48	1	41.0	19.0	0.0	0.0	1	1.0	0.0	115.0	1	1.06	0.94				
	49	1	92.0	26.0	0.0	0.0	1	1.0	0.0	115.0	1	1.06	0.94				
	51	1	-5.0	5.0	0.0	0.0	1	1.0	0.0	115.0	1	1.06	0.94				
	52	1	61.0	28.000000000000004	0.0	0.0	1	1.0	0.0	115.0	1	1.06	0.94				
	53	1	69.0	3.0	0.0	0.0	1	1.0	0.0	115.0	1	1.06	0.94				
	54	1	10.0	1.0	0.0	0.0	1	1.0	0.0	115.0	1	1.06	0.94				
	55	1	22.0	10.0	0.0	0.0	1	1.0	0.0	115.0	1	1.06	0.94				
	57	1	98.0	20.0	0.0	0.0	1	1.0	0.0	115.0	1	1.06	0.94				
	58	1	14.000000000000002	1.0	0.0	0.0	1	1.0	0.0	115.0	1	1.06	0.94				
	59	1	218.00000000000003	106.0	0.0	0.0	1	1.0	0.0	115.0	1	1.06	0.94				
	60	1	0.0	0.0	0.0	0.0	1	1.0	0.0	230.0	1	1.06	0.94				
	61	1	227.0	110.00000000000001	0.0	0.0	1	1.0	0.0	115.0	1	1.06	0.94				
	62	1	0.0	0.0	0.0	0.0	1	1.0	0.0	230.0	1	1.06	0.94				
	63	2	70.0	30.0	0.0	0.0	1	1.0	0.0	115.0	1	1.06	0.94				
	64	1	0.0	0.0	0.0	0.0	1	1.0	0.0	230.0	1	1.06	0.94				
	69	1	0.0	0.0	0.0	0.0	1	1.0	0.0	115.0	1	1.06	0.94				
	70	1	56.00000000000001	20.0	0.0	0.0	1	1.0	0.0	115.0	1	1.06	0.94				
	71	1	115.99999999999999	38.0	0.0	0.0	1	1.0	0.0	115.0	1	1.06	0.94				
	72	1	56.99999999999999	19.0	0.0	0.0	1	1.0	0.0	115.0	1	1.06	0.94				
	73	1	224.00000000000003	71.0	0.0	0.0	1	1.0	0.0	115.0	1	1.06	0.94				
	74	1	0.0	0.0	0.0	0.0	1	1.0	0.0	230.0	1	1.06	0.94				
	76	2	208.0	107.0	0.0	0.0	1	1.0	0.0	115.0	1	1.06	0.94				
	77	1	74.0	28.000000000000004	0.0	0.0	1	1.0	0.0	115.0	1	1.06	0.94				
	78	1	0.0	0.0	0.0	0.0	1	1.0	0.0	115.0	1	1.06	0.94				
	79	1	48.0	14.000000000000002	0.0	0.0	1	1.0	0.0	115.0	1	1.06	0.94				
	80	1	28.000000000000004	7.000000000000001	0.0	0.0	1	1.0	0.0	115.0	1	1.06	0.94				
	81	1	0.0	0.0	0.0	0.0	1	1.0	0.0	345.0	1	1.06	0.94				
	84	2	37.0	13.0	0.0	0.0	1	1.0	0.0	115.0	1	1.06	0.94				
	85	1	0.0	0.0	0.0	0.0	1	1.0	0.0	230.0	1	1.06	0.94				
	86	1	0.0	0.0	0.0	0.0	1	1.0	0.0	230.0	1	1.06	0.94				
	87	1	0.0	0.0	0.0	0.0	1	1.0	0.0	230.0	1	1.06	0.94				
	88	1	0.0	0.0	0.0	0.0	1	1.0	0.0	230.0	1	1.06	0.94				
	89	1	44.2	0.0	0.0	0.0	1	1.0	0.0	115.0	1	1.06	0.94				
	90	1	66.0	0.0	0.0	0.0	1	1.0	0.0	115.0	1	1.06	0.94				
	91	2	17.4	0.0	0.0	0.0	1	1.0	0.0	115.0	1	1.06	0.94				
	92	2	15.8	0.0	0.0	0.0	1	1.0	0.0	115.0	1	1.06	0.94				
	94	1	60.3	0.0	0.0	0.0	1	1.0	0.0	115.0	1	1.06	0.94				
	97	1	39.9	0.0	0.0	0.0	1	1.0	0.0	115.0	1	1.06	0.94				
	98	2	66.7	0.0	0.0	0.0	1	1.0	0.0	115.0	1	1.06	0.94				
	99	1	83.5	0.0	0.0	0.0	1	1.0	0.0	115.0	1	1.06	0.94				
	100	1	0.0	0.0	0.0	0.0	1	1.0	0.0	115.0	1	1.06	0.94				
	102	1	77.8	0.0	0.0	0.0	1	1.0	0.0	115.0	1	1.06	0.94				
	103	1	32.0	0.0	0.0	0.0	1	1.0	0.0	115.0	1	1.06	0.94				
	104	1	8.6	0.0	0.0	0.0	1	1.0	0.0	115.0	1	1.06	0.94				
	105	1	49.6	0.0	0.0	0.0	1	1.0	0.0	115.0	1	1.06	0.94				
	107	1	4.6	0.0	0.0	0.0	1	1.0	0.0	115.0	1	1.06	0.94				
	108	2	112.1	0.0	0.0	0.0	1	1.0	0.0	115.0	1	1.06	0.94				
	109	1	30.7	0.0	0.0	0.0	1	1.0	0.0	115.0	1	1.06	0.94				
	110	1	63.0	0.0	0.0	0.0	1	1.0	0.0	115.0	1	1.06	0.94				
	112	1	19.6	0.0	0.0	0.0	1	1.0	0.0	115.0	1	1.06	0.94				
	113	1	26.200000000000003	0.0	0.0	0.0	1	1.0	0.0	115.0	1	1.06	0.94				
	114	1	18.2	0.0	0.0	0.0	1	1.0	0.0	115.0	1	1.06	0.94				
	115	1	0.0	0.0	0.0	0.0	1	1.0	0.0	115.0	2	1.06	0.94				
	116	1	0.0	0.0	0.0	0.0	1	1.0	0.0	115.0	2	1.06	0.94				
	117	1	0.0	0.0	0.0	325.0	1	1.0	0.0	115.0	2	1.06	0.94				
	118	1	14.099999999999998	650.0	0.0	0.0	1	1.0	0.0	115.0	2	1.06	0.94				
	119	2	0.0	0.0	0.0	0.0	1	1.0	0.0	115.0	2	1.06	0.94				
	120	1	777.0	215.0	0.0	55.00000000000001	1	1.0	0.0	115.0	2	1.06	0.94				
	121	1	535.0	55.00000000000001	0.0	0.0	1	1.0	0.0	115.0	2	1.06	0.94				
	122	1	229.1	11.8	0.0	0.0	1	1.0	0.0	115.0	2	1.06	0.94				
	123	1	78.0	1.4	0.0	0.0	1	1.0	0.0	115.0	2	1.06	0.94				
	124	2	276.4	59.3	0.0	0.0	1	1.0	0.0	115.0	2	1.06	0.94				
	125	2	514.8	82.7	0.0	0.0	1	1.0	0.0	115.0	2	1.06	0.94				
	126	1	57.9	5.1	0.0	0.0	1	1.0	0.0	115.0	2	1.06	0.94				
	127	1	380.8	37.0	0.0	0.0	1	1.0	0.0	230.0	2	1.06	0.94				
	128	1	0.0	0.0	0.0	0.0	1	1.0	0.0	230.0	2	1.06	0.94				
	129	1	0.0	0.0	0.0	0.0	1	1.0	0.0	230.0	2	1.06	0.94				
	130	1	0.0	0.0	0.0	0.0	1	1.0	0.0	230.0	2	1.06	0.94				
	131	1	0.0	0.0	0.0	0.0	1	1.0	0.0	230.0	2	1.06	0.94				
	132	1	0.0	0.0	0.0	0.0	1	1.0	0.0	230.0	2	1.06	0.94				
	133	1	0.0	0.0	0.0	0.0	1	1.0	0.0	230.0	2	1.06	0.94				
	134	1	0.0	0.0	0.0	0.0	1	1.0	0.0	230.0	2	1.06	0.94				
	135	1	169.2	41.6	0.0	0.0	1	1.0	0.0	230.0	2	1.06	0.94				
	136	1	55.2	18.2	0.0	0.0	1	1.0	0.0	230.0	2	1.06	0.94				
	137	1	273.6	99.8	0.0	0.0	1	1.0	0.0	230.0	2	1.06	0.94				
	138	2	1019.2	135.2	0.0	0.0	1	1.0	0.0	230.0	2	1.06	0.94				
	139	1	595.0	83.3	0.0	0.0	1	1.0	0.0	115.0	2	1.06	0.94				
	140	1	387.7	114.7	0.0	0.0	1	1.0	0.0	230.0	2	1.06	0.94				
	141	2	145.0	57.99999999999999	0.0	0.0	1	1.0	0.0	230.0	2	1.06	0.94				
	142	1	56.49999999999999	24.5	0.0	0.0	1	1.0	0.0	230.0	2	1.06	0.94				
	143	2	89.5	35.5	0.0	0.0	1	1.0	0.0	230.0	2	1.06	0.94				
	144	1	0.0	0.0	0.0	0.0	1	1.0	0.0	230.0	2	1.06	0.94				
	145	1	24.0	14.000000000000002	0.0	0.0	1	1.0	0.0	230.0	2	1.06	0.94				
	146	2	0.0	0.0	0.0	0.0	1	1.0	0.0	230.0	2	1.06	0.94				
	147	2	0.0	0.0	0.0	0.0	1	1.0	0.0	230.0	2	1.06	0.94				
	148	1	63.0	25.0	0.0	0.0	1	1.0	0.0	230.0	2	1.06	0.94				
	149	2	0.0	0.0	0.0	0.0	1	1.0	0.0	230.0	2	1.06	0.94				
	150	1	0.0	0.0	0.0	0.0	1	1.0	0.0	230.0	2	1.06	0.94				
	151	1	0.0	0.0	0.0	0.0	1	1.0	0.0	230.0	2	1.06	0.94				
	152	2	17.0	9.0	0.0	0.0	1	1.0	0.0	230.0	2	1.06	0.94				
	153	2	0.0	0.0	0.0	0.0	1	1.0	0.0	230.0	2	1.06	0.94				
	154	1	70.0	5.0	0.0	34.5	1	1.0	0.0	115.0	2	1.06	0.94				
	155	1	200.0	50.0	0.0	0.0	1	1.0	0.0	230.0	2	1.06	0.94				
	156	2	75.0	50.0	0.0	0.0	1	1.0	0.0	115.0	2	1.06	0.94				
	157	1	123.50000000000001	-24.3	0.0	0.0	1	1.0	0.0	230.0	2	1.06	0.94				
	158	1	0.0	0.0	0.0	0.0	1	1.0	0.0	230.0	2	1.06	0.94				
	159	1	33.0	16.5	0.0	0.0	1	1.0	0.0	230.0	2	1.06	0.94				
	160	1	0.0	0.0	0.0	0.0	1	1.0	0.0	230.0	2	1.06	0.94				
	161	1	35.0	15.0	0.0	0.0	1	1.0	0.0	230.0	2	1.06	0.94				
	162	1	85.0	24.0	0.0	0.0	1	1.0	0.0	230.0	2	1.06	0.94				
	163	1	0.0	0.4	0.0	0.0	1	1.0	0.0	230.0	2	1.06	0.94				
	164	1	0.0	0.0	0.0	-212.0	1	1.0	0.0	230.0	2	1.06	0.94				
	165	1	0.0	0.0	0.0	0.0	1	1.0	0.0	230.0	2	1.06	0.94				
	166	1	0.0	0.0	0.0	-103.0	1	1.0	0.0	230.0	2	1.06	0.94				
	167	1	299.9	95.7	0.0	0.0	1	1.0	0.0	230.0	2	1.06	0.94				
	168	1	0.0	0.0	0.0	0.0	1	1.0	0.0	230.0	2	1.06	0.94				
	169	1	0.0	0.0	0.0	0.0	1	1.0	0.0	230.0	2	1.06	0.94				
	170	2	481.80000000000007	204.99999999999997	0.0	0.0	1	1.0	0.0	115.0	2	1.06	0.94				
	171	2	763.6	291.1	0.0	0.0	1	1.0	0.0	115.0	2	1.06	0.94				
	172	1	26.5	0.0	0.0	0.0	1	1.0	0.0	115.0	2	1.06	0.94				
	173	1	163.5	43.0	0.0	53.0	1	1.0	0.0	115.0	2	1.06	0.94				
	174	1	0.0	0.0	0.0	0.0	1	1.0	0.0	115.0	2	1.06	0.94				
	175	1	176.0	83.0	0.0	0.0	1	1.0	0.0	115.0	2	1.06	0.94				
	176	2	5.0	4.0	0.0	0.0	1	1.0	0.0	115.0	2	1.06	0.94				
	177	2	28.000000000000004	12.0	0.0	0.0	1	1.0	0.0	115.0	2	1.06	0.94				
	178	1	427.4	173.6	0.0	0.0	1	1.0	0.0	115.0	2	1.06	0.94				
	179	1	74.0	28.999999999999996	0.0	45.0	1	1.0	0.0	115.0	2	1.06	0.94				
	180	1	69.5	49.3	0.0	0.0	1	1.0	0.0	115.0	2	1.06	0.94				
	181	1	73.4	0.0	0.0	0.0	1	1.0	0.0	230.0	2	1.06	0.94				
	182	1	240.7	89.0	0.0	0.0	1	1.0	0.0	230.0	2	1.06	0.94				
	183	1	40.0	4.0	0.0	0.0	1	1.0	0.0	115.0	2	1.06	0.94				
	184	1	136.8	16.6	0.0	0.0	1	1.0	0.0	230.0	2	1.06	0.94				
	185	2	0.0	0.0	0.0	0.0	1	1.0	0.0	230.0	2	1.06	0.94				
	186	2	59.8	24.3	0.0	0.0	1	1.0	0.0	230.0	2	1.06	0.94				
	187	2	59.8	24.3	0.0	0.0	1	1.0	0.0	230.0	2	1.06	0.94				
	188	1	182.6	43.6	0.0	0.0	1	1.0	0.0	230.0	2	1.06	0.94				
	189	1	7.000000000000001	2.0	0.0	0.0	1	1.0	0.0	66.0	3	1.06	0.94				
	190	2	0.0	0.0	0.0	-150.0	1	1.0	0.0	345.0	3	1.06	0.94				
	191	2	488.99999999999994	53.0	0.0	0.0	1	1.0	0.0	230.0	3	1.06	0.94				
	192	1	800.0	72.0	0.0	0.0	1	1.0	0.0	230.0	3	1.06	0.94				
	193	1	0.0	0.0	0.0	0.0	1	1.0	0.0	66.0	3	1.06	0.94				
	194	1	0.0	0.0	0.0	0.0	1	1.0	0.0	345.0	3	1.06	0.94				
	195	1	0.0	0.0	0.0	0.0	1	1.0	0.0	345.0	3	1.06	0.94				
	196	1	10.0	3.0	0.0	0.0	1	1.0	0.0	115.0	3	1.06	0.94				
	197	1	43.0	14.000000000000002	0.0	0.0	1	1.0	0.0	115.0	3	1.06	0.94				
	198	2	64.0	21.0	0.0	0.0	1	1.0	0.0	115.0	3	1.06	0.94				
	199	1	35.0	12.0	0.0	0.0	1	1.0	0.0	115.0	3	1.06	0.94				
	200	1	27.0	12.0	0.0	0.0	1	1.0	0.0	115.0	3	1.06	0.94				
	201	1	41.0	14.000000000000002	0.0	0.0	1	1.0	0.0	66.0	1	1.06	0.94				
	202	1	38.0	13.0	0.0	0.0	1	1.0	0.0	66.0	3	1.06	0.94				
	203	1	42.0	14.000000000000002	0.0	0.0	1	1.0	0.0	115.0	3	1.06	0.94				
	204	1	72.0	24.0	0.0	0.0	1	1.0	0.0	66.0	3	1.06	0.94				
	205	1	0.0	-5.0	0.0	0.0	1	1.0	0.0	66.0	3	1.06	0.94				
	206	1	12.0	2.0	0.0	0.0	1	1.0	0.0	66.0	3	1.06	0.94				
	207	1	-21.0	-14.2	0.0	0.0	1	1.0	0.0	66.0	1	1.06	0.94				
	208	1	7.000000000000001	2.0	0.0	0.0	1	1.0	0.0	66.0	3	1.06	0.94				
	209	1	38.0	13.0	0.0	0.0	1	1.0	0.0	66.0	3	1.06	0.94				
	210	1	0.0	0.0	0.0	0.0	1	1.0	0.0	115.0	3	1.06	0.94				
	211	1	96.0	7.000000000000001	0.0	0.0	1	1.0	0.0	115.0	3	1.06	0.94				
	212	1	0.0	0.0	0.0	0.0	1	1.0	0.0	138.0	3	1.06	0.94				
	213	2	0.0	0.0	0.0	0.0	1	1.0	0.0	16.5	3	1.06	0.94				
	214	1	22.0	16.0	0.0	0.0	1	1.0	0.0	138.0	3	1.06	0.94				
	215	1	47.0	26.0	0.0	0.0	1	1.0	0.0	138.0	3	1.06	0.94				
	216	1	176.0	105.0	0.0	0.0	1	1.0	0.0	138.0	3	1.06	0.94				
	217	1	100.0	75.0	0.0	0.0	1	1.0	0.0	138.0	3	1.06	0.94				
	218	1	131.0	96.0	0.0	0.0	1	1.0	0.0	138.0	3	1.06	0.94				
	219	1	0.0	0.0	0.0	0.0	1	1.0	0.0	345.0	3	1.06	0.94				
	220	2	285.0	100.0	0.0	0.0	1	1.0	0.0	138.0	3	1.06	0.94				
	221	2	171.0	70.0	0.0	0.0	1	1.0	0.0	138.0	3	1.06	0.94				
...
];

%% generator data
%    bus    Pg    Qg    Qmax    Qmin    Vg    mBase    status    Pmax    Pmin    Pc1    Pc2    Qc1min    Qc1max    Qc2min    Qc2max    ramp_agc    ramp_10    ramp_30    ramp_q    apf
mpc.gen = [
	8	0.0	0.0	10.0	-10.0	1.0	100.0	1	0.0	0.0															
	10	0.0	0.0	20.0	-20.0	1.0	100.0	1	0.0	0.0															
	20	0.0	0.0	20.0	-20.0	1.0	100.0	1	0.0	0.0															
	63	0.0	0.0	25.0	-25.0	1.0	100.0	1	0.0	0.0															
	76	0.0	23.5	35.0	12.0	1.0	100.0	1	0.0	0.0															
	84	724.0	0.0	240.0	-240.0	1.0	100.0	1	1448.0	0.0															
	91	92.5	41.0	93.0	-11.0	1.0	100.0	1	185.0	0.0															
	92	180.0	0.0	153.0	-153.0	1.0	100.0	1	360.0	0.0															
	98	46.5	8.5	47.0	-30.0	1.0	100.0	1	93.0	0.0															
	108	98.5	26.5	77.0	-24.0	1.0	100.0	1	197.0	0.0															
	119	1020.5	260.5	1021.0000000000001	-500.0	1.0	100.0	1	2041.0	0.0															
	124	160.5	30.0	120.0	-60.0	1.0	100.0	1	321.0	0.0															
	125	0.0	87.5	200.0	-25.0	1.0	100.0	1	0.0	0.0															
	138	0.0	112.5	350.0	-125.0	1.0	100.0	1	0.0	0.0															
	141	148.5	12.5	75.0	-50.0	1.0	100.0	1	297.0	0.0															
	143	400.0	100.0	300.0	-100.0	1.0	100.0	1	800.0	0.0															
	146	45.5	10.0	35.0	-15.0	1.0	100.0	1	91.0	0.0															
	147	160.0	25.0	100.0	-50.0	1.0	100.0	1	320.0	0.0															
	149	138.5	12.5	50.0	-25.0	1.0	100.0	1	277.0	0.0															
	152	303.0	62.5	175.0	-50.0	1.0	100.0	1	606.0	0.0															
	153	121.0	20.0	90.0	-50.0	1.0	100.0	1	242.0	0.0															
	156	0.0	2.5	15.0	-10.0	1.0	100.0	1	0.0	0.0															
	170	165.0	25.0	90.0	-40.0	1.0	100.0	1	330.0	0.0															
	171	0.0	50.0	150.0	-50.0	1.0	100.0	1	0.0	0.0															
	176	139.0	22.5	90.0	-45.0	1.0	100.0	1	278.0	0.0															
	177	62.5	10.0	35.0	-15.0	1.0	100.0	1	125.0	0.0															
	185	125.0	15.0	80.0	-50.0	1.0	100.0	1	250.0	0.0															
	186	1232.5	150.0	400.0	-100.0	1.0	100.0	1	2465.0	0.0															
	187	811.9999999999999	150.0	400.0	-100.0	1.0	100.0	1	1623.9999999999998	0.0															
	190	257.5	0.0	258.0	-258.0	1.0	100.0	1	515.0	0.0															
	191	1070.0	0.0	1000.0	-1000.0	1.0	100.0	1	2140.0	0.0															
	198	215.0	0.0	215.0	-215.0	1.0	100.0	1	430.0	0.0															
	213	144.0	0.0	144.0	-144.0	1.0	100.0	1	288.0	0.0															
	220	229.99999999999997	0.0	60.0	-60.0	1.0	100.0	1	459.99999999999994	0.0															
	221	277.0	0.0	277.0	-277.0	1.0	100.0	1	554.0	0.0															
	222	261.5	0.0	262.0	-262.0	1.0	100.0	1	523.0	0.0															
	227	218.00000000000003	0.0	218.00000000000003	-218.00000000000003	1.0	100.0	1	436.00000000000006	0.0															
	230	229.0	0.0	229.0	-229.0	1.0	100.0	1	458.0	0.0															
	233	170.5	0.0	171.0	-171.0	1.0	100.0	1	341.0	0.0															
	236	440.5	0.0	300.0	-300.0	1.0	100.0	1	881.0	0.0															
	238	133.5	0.0	134.0	-134.0	1.0	100.0	1	267.0	0.0															
	239	310.5	0.0	311.0	-311.0	1.0	100.0	1	621.0	0.0															
	241	563.5	0.0	564.0	-564.0	1.0	100.0	1	1127.0	0.0															
	242	106.0	70.0	100.0	40.0	1.0	100.0	1	212.0	0.0															
	243	171.0	60.0	80.0	40.0	1.0	100.0	1	342.0	0.0															
	7001	284.0	0.0	210.0	-210.0	1.0	100.0	1	568.0	0.0															
	7002	335.0	0.0	280.0	-280.0	1.0	100.0	1	670.0	0.0															
	7003	700.5	0.0	420.0	-420.0	1.0	100.0	1	1401.0	0.0															
	7011	334.0	0.0	100.0	-100.0	1.0	100.0	1	668.0	0.0															
	7012	313.0	0.0	224.00000000000003	-224.00000000000003	1.0	100.0	1	626.0	0.0															
	7017	245.00000000000003	122.50000000000001	245.00000000000003	0.0	1.0	100.0	1	490.00000000000006	0.0															
	7023	110.00000000000001	55.00000000000001	110.00000000000001	0.0	1.0	100.0	1	220.00000000000003	0.0															
	7024	271.5	0.0	224.00000000000003	-224.00000000000003	1.0	100.0	1	543.0	0.0															
	7039	290.0	0.0	200.0	-200.0	1.0	100.0	1	580.0	0.0															
	7044	66.0	21.0	42.0	0.0	1.0	100.0	1	132.0	0.0															
	7049	359.0	5.0	10.0	0.0	1.0	100.0	1	718.0	0.0															
	7055	79.0	12.5	25.0	0.0	1.0	100.0	1	158.0	0.0															
	7057	167.0	0.0	90.0	-90.0	1.0	100.0	1	334.0	0.0															
	7061	878.5	0.0	150.0	-150.0	1.0	100.0	1	1757.0	0.0															
	7062	284.0	75.0	150.0	0.0	1.0	100.0	1	568.0	0.0															
	7071	101.49999999999999	43.5	87.0	0.0	1.0	100.0	1	202.99999999999997	0.0															
	7130	863.0000000000001	250.0	600.0	-100.0	1.0	100.0	1	1726.0000000000002	0.0															
	7139	1012.5	100.0	325.0	-125.0	1.0	100.0	1	2025.0	0.0															
	7166	312.0	50.0	300.0	-200.0	1.0	100.0	1	624.0	0.0															
	9002	0.0	0.0	2.0	-2.0	1.0	100.0	1	0.0	0.0															
	9051	0.0	0.0	17.35	-17.35	1.0	100.0	1	0.0	0.0															
	9053	0.0	0.015	12.83	-12.8	1.0	100.0	1	0.0	0.0															
	9054	42.0	0.0	38.0	-38.0	1.0	100.0	1	84.0	0.0															
	9055	18.5	0.0	6.0	-6.0	1.0	100.0	1	37.0	0.0															
];

%% branch data
%    f_bus    t_bus    r    x    b    rateA    rateB    rateC    ratio    angle    status    angmin    angmax
mpc.branch = [
	37	9001	5.999582752212027e-5	0.0004599680110035444	0.02249980497571475	9900.0	63229.99999999999	63229.99999999999	1.0082	0.0	1	-29.999999999999996	29.999999999999996								
	9001	9005	0.0007998551417854908	0.003479369879279465	0.004347830796963282	8215.0	8215.0	8215.0	0	0	1	-29.999999999999996	29.999999999999996								
	9001	9006	0.01978346478815419	0.34892103655362106	0.004348504161136757	68.0	68.0	68.0	0.9668	0.0	1	-29.999999999999996	29.999999999999996								
	9001	9012	0.15569088255871277	1.016111641682206	0.004349195123232925	46.0	46.0	46.0	0.9796	0.0	1	-29.999999999999996	29.999999999999996								
	9005	9051	0.015520436412699384	0.3241903074379724	0.0043486349382811955	79.0	79.0	79.0	1.0435	0.0	1	-29.999999999999996	29.999999999999996								
	9005	9052	0.02016900035733819	0.369439610559448	0.004352806152866976	79.0	79.0	79.0	0.9391	0.0	1	-29.999999999999996	29.999999999999996								
	9005	9053	0.03140632743341687	0.46062730483208797	0.1115906869616118	78.0	78.0	78.0	1.0435	0.0	1	-29.999999999999996	29.999999999999996								
	9005	9054	0.0033781880351539902	0.15138501666075566	0.27145912786986093	193.0	193.0	193.0	1.0435	0.0	1	-29.999999999999996	29.999999999999996								
	9005	9055	0.09357968431375206	0.7914530243777522	0.033447213763572264	37.0	37.0	37.0	1.0435	0.0	1	-29.999999999999996	29.999999999999996								
	9006	9007	0.05873064760021222	0.2605803148805215	0.08353667296736629	117.0	117.0	117.0	0	0	1	-29.999999999999996	29.999999999999996								
	9006	9003	0.11251368135448898	0.49852729371761195	0.004347727050852648	59.0	59.0	59.0	0	0	1	-29.999999999999996	29.999999999999996								
	9006	9003	0.12959439706749848	0.5740848826906362	0.004347502294114087	59.0	59.0	59.0	0	0	1	-29.999999999999996	29.999999999999996								
	9012	9002	0.0818859470106091	0.4649733344131395	0.06867983859705366	67.0	67.0	67.0	0	0	1	-29.999999999999996	29.999999999999996								
	9012	9002	0.07539709354721197	0.4281323543754374	0.004348188588876077	67.0	67.0	67.0	0	0	1	-29.999999999999996	29.999999999999996								
	9002	9021	0.054460556099114654	0.07125505959088464	0.004349681484435469	332.0	332.0	332.0	0	0	1	-29.999999999999996	29.999999999999996								
	9021	9023	0.451359610124932	0.7781643833970731	0.0043514077056786065	21.0	21.0	21.0	0	0	1	-29.999999999999996	29.999999999999996								
	9021	9022	0.15569103433019846	1.0161117055494613	0.004351505064542686	11.0	11.0	11.0	1.0	0.0	1	-29.999999999999996	29.999999999999996								
	9002	9024	0.15569090952927508	1.0161117655113119	0.023169760514107463	9.0	9.0	9.0	1.0	0.0	1	-29.999999999999996	29.999999999999996								
	9023	9025	0.15569079423303928	1.0161118213366302	0.01334989365186733	8.0	8.0	8.0	1.0	0.0	1	-29.999999999999996	29.999999999999996								
	9023	9026	0.15569123479154764	1.0161116206120633	0.004347853466813418	8.0	8.0	8.0	1.0	0.0	1	-29.999999999999996	29.999999999999996								
	9007	9071	0.15569099735718459	1.0161117197167877	0.004347520536106155	10.0	10.0	10.0	1.0	0.0	1	-29.999999999999996	29.999999999999996								
	9007	9072	0.15569101715038103	1.0161117102346038	0.0043483073951932245	15.0	15.0	15.0	1.0	0.0	1	-29.999999999999996	29.999999999999996								
	9007	9003	0.05759920097450752	0.25457856370435894	0.004347593347460604	115.99999999999999	115.99999999999999	115.99999999999999	0	0	1	-29.999999999999996	29.999999999999996								
	9003	9031	0.1556906643170854	1.016111884586743	0.004349752506311353	7.000000000000001	7.000000000000001	7.000000000000001	1.0	0.0	1	-29.999999999999996	29.999999999999996								
	9003	9032	0.1556908935434799	1.0161117732217764	0.004347001414222015	6.0	6.0	6.0	1.0	0.0	1	-29.999999999999996	29.999999999999996								
	9003	9033	0.15569095703150948	1.0161117426412618	0.004347078789265858	7.000000000000001	7.000000000000001	7.000000000000001	1.0	0.0	1	-29.999999999999996	29.999999999999996								
	9003	9044	0.07409129867923299	0.06378800605659253	0.004346847700869413	302.0	302.0	302.0	0	0	1	-29.999999999999996	29.999999999999996								
	9044	9004	0.03831262949693446	0.028934433657287786	0.004347630847582561	611.0	611.0	611.0	0	0	1	-29.999999999999996	29.999999999999996								
	9004	9041	0.15569132326370919	1.0161115544220174	0.004346760517959451	12.0	12.0	12.0	1.0	0.0	1	-29.999999999999996	29.999999999999996								
	9004	9042	0.15569077615291113	1.0161118295870175	0.004347612064762146	6.0	6.0	6.0	1.0	0.0	1	-29.999999999999996	29.999999999999996								
	9004	9043	0.15569097285415545	1.0161116720858823	0.004347451050681454	18.0	18.0	18.0	1.0	0.0	1	-29.999999999999996	29.999999999999996								
	9003	9034	0.15569107026183535	1.01611152653471	0.004346741015692704	21.0	21.0	21.0	1.0	0.0	1	-29.999999999999996	29.999999999999996								
	9003	9035	0.1556908905549087	1.0161117746651493	0.004347016820381184	9.0	9.0	9.0	1.0	0.0	1	-29.999999999999996	29.999999999999996								
	9003	9036	0.15569077949395213	1.0161118298576903	0.004347126692121312	18.0	18.0	18.0	1.0	0.0	1	-29.999999999999996	29.999999999999996								
	9003	9037	0.15569179062473648	1.0161113141510352	0.004347522302111887	12.0	12.0	12.0	1.0	0.0	1	-29.999999999999996	29.999999999999996								
	9003	9038	0.15569081755169648	1.0161118096660209	0.004347781839632493	10.0	10.0	10.0	1.0	0.0	1	-29.999999999999996	29.999999999999996								
	9012	9121	0.20632706927099398	0.8675941388332105	0.0043502097486753525	28.999999999999996	28.999999999999996	28.999999999999996	0	0	1	-29.999999999999996	29.999999999999996								
	9053	9533	0.08424075025687669	0.7514467583819363	0.09574668416508739	40.0	40.0	40.0	0.9583	0.0	1	-29.999999999999996	29.999999999999996								
	1	5	0.00100080027446171	0.006004801646427295	0.010193678653491542	4823.0	4823.0	4823.0	0	0	1	-29.999999999999996	29.999999999999996								
	2	6	0.0009932399822803703	0.008939159837683059	0.004349969739072417	3240.0	3240.0	3240.0	0	0	1	-29.999999999999996	29.999999999999996								
	2	8	0.005992429983160428	0.026965934898044722	0.026729717388313343	1061.0	1061.0	1061.0	0	0	1	-29.999999999999996	29.999999999999996								
	3	7	1.3255575143392468e-6	0.002999496326769421	0.004351781562715852	9778.0	9778.0	9778.0	0	0	1	-29.999999999999996	29.999999999999996								
	3	19	0.008169253755839889	0.07045981179054754	0.09947225555553894	423.00000000000006	423.00000000000006	423.00000000000006	0	0	1	-29.999999999999996	29.999999999999996								
	3	150	0.0010005930935288567	0.007004151654104606	0.004347800617593375	4149.0	4149.0	4149.0	0	0	1	-29.999999999999996	29.999999999999996								
	4	16	0.002026829439988554	0.019254879617450312	1.0870512409889583	1536.0	1536.0	1536.0	0	0	1	-29.999999999999996	29.999999999999996								
	5	9	0.005995532055230026	0.028978404901249765	0.004430014360677396	991.0	991.0	991.0	0	0	1	-29.999999999999996	29.999999999999996								
	7	12	0.0009966037017587659	0.00896943331196788	0.09678104877059542	3240.0	3240.0	3240.0	0	0	1	-29.999999999999996	29.999999999999996								
	7	131	0.0010002611775564137	0.007001828242116783	0.004348564117740222	4149.0	4149.0	4149.0	0	0	1	-29.999999999999996	29.999999999999996								
	8	11	0.013343395604988926	0.06107169497737901	0.004357522127302271	482.0	482.0	482.0	0	0	1	-29.999999999999996	29.999999999999996								
	8	14	0.013022091517012202	0.04207137251837866	0.1071530062320647	668.0	668.0	668.0	0	0	1	-29.999999999999996	29.999999999999996								
	9	11	0.006064234576855043	0.027289055573639028	0.061031335724942765	1061.0	1061.0	1061.0	0	0	1	-29.999999999999996	29.999999999999996								
	11	13	0.008076987748803909	0.03432719789992726	0.004363806990090002	840.0	840.0	840.0	0	0	1	-29.999999999999996	29.999999999999996								
	12	21	0.0020009792105079626	0.015007344063393982	0.21876312696964936	1939.0	1939.0	1939.0	0	0	1	-29.999999999999996	29.999999999999996								
	13	20	0.005966423076155572	0.03380973069986198	0.056931114936020294	850.0	850.0	850.0	0	0	1	-29.999999999999996	29.999999999999996								
	14	15	0.013996946902946176	0.041990840662679704	0.07185636288171653	663.0	663.0	663.0	0	0	1	-29.999999999999996	29.999999999999996								
	15	37	0.0657085606658393	0.25070343465026196	0.14917976700438687	114.99999999999999	114.99999999999999	114.99999999999999	0	0	1	-29.999999999999996	29.999999999999996								
	15	89	0.09899321365369212	0.24798299085798034	0.004352140459658204	110.00000000000001	110.00000000000001	110.00000000000001	0	0	1	-29.999999999999996	29.999999999999996								
	15	90	0.09322889774713365	0.3525217191897967	0.050934554366882434	79.0	79.0	79.0	0	0	1	-29.999999999999996	29.999999999999996								
	16	42	0.002002213653743365	0.022024350139378424	1.3064539445009793	1328.0	1328.0	1328.0	0	0	1	-29.999999999999996	29.999999999999996								
	19	21	0.0019913711436243746	0.017922340267185293	0.0043480731280677596	1620.0	1620.0	1620.0	0	0	1	-29.999999999999996	29.999999999999996								
	19	87	0.013128238647427853	0.08078915935803278	0.17119892592736782	362.0	362.0	362.0	0	0	1	-29.999999999999996	29.999999999999996								
	20	22	0.01587429663188917	0.03274073679338482	0.004348291725977934	800.0	800.0	800.0	0	0	1	-29.999999999999996	29.999999999999996								
	20	27	0.07043178982465371	0.1898596041783696	0.06227926917003857	148.0	148.0	148.0	0	0	1	-29.999999999999996	29.999999999999996								
	21	24	0.003976747168206019	0.03380235081437139	0.24325754387340887	857.0	857.0	857.0	0	0	1	-29.999999999999996	29.999999999999996								
	22	23	0.051204982721034464	0.10930294414102042	0.06958798435357269	240.0	240.0	240.0	0	0	1	-29.999999999999996	29.999999999999996								
	23	25	0.019043333051305074	0.039088946780568755	0.043132615455423504	677.0	677.0	677.0	0	0	1	-29.999999999999996	29.999999999999996								
	24	319	0.0074790242047817635	0.07265337579885721	0.11117514188790167	430.0	430.0	430.0	0	0	1	-29.999999999999996	29.999999999999996								
	25	26	0.03615542085615254	0.071306524451075	0.06513888588106195	369.0	369.0	369.0	0	0	1	-29.999999999999996	29.999999999999996								
	26	27	0.044804483774860945	0.11947862297536573	0.06833790310489272	229.0	229.0	229.0	0	0	1	-29.999999999999996	29.999999999999996								
	26	320	0.04308851902650609	0.13026761439719106	0.0043481911549235015	215.0	215.0	215.0	0	0	1	-29.999999999999996	29.999999999999996								
	33	34	0.000590925158274196	0.06332809479214148	0.004349033972567245	466.0	466.0	466.0	1.0	0.0	1	-29.999999999999996	29.999999999999996								
	33	38	0.0025000253620524543	0.012000121735546451	0.0066244000971577045	2393.0	2393.0	2393.0	0	0	1	-29.999999999999996	29.999999999999996								
	33	40	0.006045977213641596	0.02922222315862879	0.20835598547840015	991.0	991.0	991.0	0	0	1	-29.999999999999996	29.999999999999996								
	33	41	0.007009481013874245	0.04305824034580878	0.004359481736989471	674.0	674.0	674.0	0	0	1	-29.999999999999996	29.999999999999996								
	34	42	0.00099763550097005	0.007981084005827557	0.004349529292123223	3639.0	3639.0	3639.0	0	0	1	-29.999999999999996	29.999999999999996								
	35	72	0.011708134593933455	0.058540672726241284	0.062286043830874854	480.0	480.0	480.0	0	0	1	-29.999999999999996	29.999999999999996								
	35	76	0.005990099905701714	0.01397689977918698	0.004352393433333753	1926.0000000000002	1926.0000000000002	1926.0000000000002	0	0	1	-29.999999999999996	29.999999999999996								
	35	77	0.009990841106733622	0.028973439198627597	0.10825913208483579	957.0	957.0	957.0	0	0	1	-29.999999999999996	29.999999999999996								
	36	88	0.004048982732951933	0.027330633403901104	0.052781200243581794	1075.0	1075.0	1075.0	0	0	1	-29.999999999999996	29.999999999999996								
	37	38	0.00802361497633461	0.047138737975312456	0.026226830078884288	616.0	616.0	616.0	0	0	1	-29.999999999999996	29.999999999999996								
	37	40	0.02206147528230476	0.06417883732584097	0.14333691702560458	434.0	434.0	434.0	0	0	1	-29.999999999999996	29.999999999999996								
	37	41	0.009994654452652234	0.03598075594723505	0.018316379710509093	786.0	786.0	786.0	0	0	1	-29.999999999999996	29.999999999999996								
	37	49	0.017176471979022955	0.0818408339133405	0.07990670120495251	355.0	355.0	355.0	0	0	1	-29.999999999999996	29.999999999999996								
	37	89	0.10253934684962637	0.255343092499649	0.01561364880008953	108.0	108.0	108.0	0	0	1	-29.999999999999996	29.999999999999996								
	37	90	0.04692049905942796	0.12678518077651654	0.06520419448844102	217.0	217.0	217.0	0	0	1	-29.999999999999996	29.999999999999996								
	38	41	0.007995260284732046	0.03697807874479811	0.004419521724698565	775.0	775.0	775.0	0	0	1	-29.999999999999996	29.999999999999996								
	38	43	0.03180804828781113	0.08647813183564361	0.04060216084688229	317.0	317.0	317.0	0	0	1	-29.999999999999996	29.999999999999996								
	39	42	0.000600583205835391	0.006406220860049021	0.3920905641339537	4564.0	4564.0	4564.0	0	0	1	-29.999999999999996	29.999999999999996								
	40	48	0.025215988955065747	0.14935624303611755	0.028512916009385006	188.0	188.0	188.0	0	0	1	-29.999999999999996	29.999999999999996								
	41	42	0.00012348702625774365	0.02895048236636046	0.004349624582996252	1011.9999999999999	1011.9999999999999	1011.9999999999999	1.0	0.0	1	-29.999999999999996	29.999999999999996								
	41	49	0.06398951545870864	0.18803073670472864	0.06348400955677408	146.0	146.0	146.0	0	0	1	-29.999999999999996	29.999999999999996								
	41	51	0.030930700580732513	0.08880104306697449	0.037215372123989995	312.0	312.0	312.0	0	0	1	-29.999999999999996	29.999999999999996								
	42	46	0.00199631210120547	0.01397418470561816	0.8880284845067484	2075.0	2075.0	2075.0	0	0	1	-29.999999999999996	29.999999999999996								
	43	44	0.026065043869291753	0.07218012124537916	0.004364225339600771	384.0	384.0	384.0	0	0	1	-29.999999999999996	29.999999999999996								
	43	48	0.10238537584705414	0.2823680777031071	0.004351957438407948	106.0	106.0	106.0	0	0	1	-29.999999999999996	29.999999999999996								
	43	53	0.013062509461731354	0.03918752836054977	0.038317993666252964	714.0	714.0	714.0	0	0	1	-29.999999999999996	29.999999999999996								
	44	47	0.02680494696521279	0.08339316833849954	0.08089338280024967	333.0	333.0	333.0	0	0	1	-29.999999999999996	29.999999999999996								
	44	54	0.02832143558215455	0.08496430641286547	0.03189234714451028	332.0	332.0	332.0	0	0	1	-29.999999999999996	29.999999999999996								
	45	60	0.006879790198609488	0.04029591384059142	0.25937525563375413	706.0	706.0	706.0	0	0	1	-29.999999999999996	29.999999999999996								
	45	74	0.009011344060193901	0.054068064142907324	0.40472085823952975	536.0	536.0	536.0	0	0	1	-29.999999999999996	29.999999999999996								
	46	81	0.005028595680455444	0.042240203363778435	0.6440738357290865	694.0	694.0	694.0	0	0	1	-29.999999999999996	29.999999999999996								
	47	73	0.053455093491910376	0.1490574703510109	0.004347511377032593	191.0	191.0	191.0	0	0	1	-29.999999999999996	29.999999999999996								
	47	113	0.04370708021444566	0.11994035898873333	0.02874873769277166	234.0	234.0	234.0	0	0	1	-29.999999999999996	29.999999999999996								
	48	107	0.024734461931601393	0.061341465570290604	0.07223728649386887	438.99999999999994	438.99999999999994	438.99999999999994	0	0	1	-29.999999999999996	29.999999999999996								
	49	51	0.03104015537633106	0.09412176344697032	0.00439729246040015	297.0	297.0	297.0	0	0	1	-29.999999999999996	29.999999999999996								
	51	52	0.036351130610599885	0.10708846716204563	0.004349651455052927	254.99999999999997	254.99999999999997	254.99999999999997	0	0	1	-29.999999999999996	29.999999999999996								
	52	55	0.026873812175362315	0.07962610994780354	0.08107474233264399	348.0	348.0	348.0	0	0	1	-29.999999999999996	29.999999999999996								
	53	54	0.02499095845403783	0.07297359842607236	0.004349323690646105	381.0	381.0	381.0	0	0	1	-29.999999999999996	29.999999999999996								
	54	55	0.03523899465726959	0.10370332636750647	0.04967056978479179	270.0	270.0	270.0	0	0	1	-29.999999999999996	29.999999999999996								
	55	57	0.06483831235403832	0.16857960947866094	0.16364792221021332	162.0	162.0	162.0	0	0	1	-29.999999999999996	29.999999999999996								
	57	58	0.046025572387371774	0.08004447359083973	0.022455380591815843	318.0	318.0	318.0	0	0	1	-29.999999999999996	29.999999999999996								
	57	63	0.14997020513861986	0.5065032612478209	0.02259171598262956	53.0	53.0	53.0	0	0	1	-29.999999999999996	29.999999999999996								
	58	59	0.008952505027883317	0.02586279229411121	0.09432891952693871	1067.0	1067.0	1067.0	0	0	1	-29.999999999999996	29.999999999999996								
	59	61	0.0019959792602474895	0.012973865186934488	0.08239421268064419	2231.0	2231.0	2231.0	0	0	1	-29.999999999999996	29.999999999999996								
	60	62	0.008863989605251654	0.06401770132897133	0.4993186020026993	447.0	447.0	447.0	0	0	1	-29.999999999999996	29.999999999999996								
	62	64	0.016197287076029073	0.10629470766996256	0.3375221749209253	277.0	277.0	277.0	0	0	1	-29.999999999999996	29.999999999999996								
	62	144	0.0009967174477382267	0.006977022133347796	0.04056007240089432	4149.0	4149.0	4149.0	0	0	1	-29.999999999999996	29.999999999999996								
	63	526	0.025530761576543656	0.16570913891323047	0.042469077707540666	169.0	169.0	169.0	0	0	1	-29.999999999999996	29.999999999999996								
	69	211	0.05264074317910025	0.23946375441078135	0.02859403060508247	124.0	124.0	124.0	0	0	1	-29.999999999999996	29.999999999999996								
	69	79	0.05150969514695065	0.15856905888265685	0.18172544186212364	178.0	178.0	178.0	0	0	1	-29.999999999999996	29.999999999999996								
	70	71	0.03215534326848388	0.10048544818664251	0.04272495763432983	280.0	280.0	280.0	0	0	1	-29.999999999999996	29.999999999999996								
	70	528	0.019641117069748838	0.12118568854363622	0.016167489942142427	235.0	235.0	235.0	0	0	1	-29.999999999999996	29.999999999999996								
	71	72	0.03600274892925392	0.1310100015531382	0.08801371411660787	216.0	216.0	216.0	0	0	1	-29.999999999999996	29.999999999999996								
	71	73	0.033485457603061985	0.09750177339703996	0.25287298837912836	281.0	281.0	281.0	0	0	1	-29.999999999999996	29.999999999999996								
	72	77	0.01792741919986856	0.08664919210679017	0.02574975468528635	331.0	331.0	331.0	0	0	1	-29.999999999999996	29.999999999999996								
	72	531	0.026823634615675218	0.20222502683914678	0.004347893807249013	151.0	151.0	151.0	0	0	1	-29.999999999999996	29.999999999999996								
	73	76	0.020965801021248273	0.05690717411469397	0.005626091856973617	483.0	483.0	483.0	0	0	1	-29.999999999999996	29.999999999999996								
	73	79	0.017838000242977565	0.05153200063893124	0.02033960297186916	534.0	534.0	534.0	0	0	1	-29.999999999999996	29.999999999999996								
	74	88	0.004017701118523924	0.027119482510746546	0.004363207333371051	1075.0	1075.0	1075.0	0	0	1	-29.999999999999996	29.999999999999996								
	74	562	0.02624570300163281	0.18472935356105902	0.40358768395680117	145.0	145.0	145.0	0	0	1	-29.999999999999996	29.999999999999996								
	76	77	0.016038511879987023	0.04310350064777376	0.004350777374538287	640.0	640.0	640.0	0	0	1	-29.999999999999996	29.999999999999996								
	77	78	0.0010001923817845341	0.006001154290399728	0.004347365154691705	4823.0	4823.0	4823.0	0	0	1	-29.999999999999996	29.999999999999996								
	77	80	0.0139674052280876	0.06983702563667359	0.10168855748161885	411.00000000000006	411.00000000000006	411.00000000000006	0	0	1	-29.999999999999996	29.999999999999996								
	77	552	0.08225323297692319	0.2470366374560802	0.04159417414664077	104.0	104.0	104.0	0	0	1	-29.999999999999996	29.999999999999996								
	77	609	0.08360975134067294	0.2274142459260063	0.004357624575040354	130.0	130.0	130.0	0	0	1	-29.999999999999996	29.999999999999996								
	78	79	0.005999138105571069	0.021996839711852643	0.09163000314386041	1287.0	1287.0	1287.0	0	0	1	-29.999999999999996	29.999999999999996								
	78	84	0.00019103824490363555	0.03600834298107173	0.004365668322391288	815.0	815.0	815.0	0	0	1	-29.999999999999996	29.999999999999996								
	79	211	0.10097706017624397	0.3824888081566357	0.004347547256161349	76.0	76.0	76.0	0	0	1	-29.999999999999996	29.999999999999996								
	80	211	0.021782135916648487	0.1059403867678395	0.10104776205858855	269.0	269.0	269.0	0	0	1	-29.999999999999996	29.999999999999996								
	81	194	0.0035145189951840323	0.03313689320372208	0.47347981045903653	884.0	884.0	884.0	0	0	1	-29.999999999999996	29.999999999999996								
	81	195	0.0035247677588754562	0.0332335243910562	0.6553850646121977	884.0	884.0	884.0	0	0	1	-29.999999999999996	29.999999999999996								
	85	86	0.007985810235509806	0.06388648087724096	0.07845769537218442	455.0	455.0	455.0	0	0	1	-29.999999999999996	29.999999999999996								
	86	87	0.011460001412695124	0.08881500822954266	0.22476281940174886	313.0	313.0	313.0	0	0	1	-29.999999999999996	29.999999999999996								
	86	323	0.0061129077951624575	0.04890326192644294	0.004347963369137772	607.0	607.0	607.0	0	0	1	-29.999999999999996	29.999999999999996								
	89	91	0.047058995660149795	0.11914937142628829	0.0043824199679789655	229.99999999999997	229.99999999999997	229.99999999999997	0	0	1	-29.999999999999996	29.999999999999996								
	90	92	0.03129820952509366	0.17018400407045742	0.04147763038618427	166.0	166.0	166.0	0	0	1	-29.999999999999996	29.999999999999996								
	91	94	0.09882751506410212	0.2500336085408819	0.14010291877808914	108.0	108.0	108.0	0	0	1	-29.999999999999996	29.999999999999996								
	91	97	0.022276251369494966	0.07796687966980088	0.004350061474723487	367.0	367.0	367.0	0	0	1	-29.999999999999996	29.999999999999996								
	92	103	0.018660142394121653	0.14142422699497012	0.045196187151879154	202.0	202.0	202.0	0	0	1	-29.999999999999996	29.999999999999996								
	92	105	0.016437397218934155	0.08895532492533662	0.004348156403374712	314.0	314.0	314.0	0	0	1	-29.999999999999996	29.999999999999996								
	94	97	0.28137756979556666	0.432187846236009	0.004353503348716002	57.99999999999999	57.99999999999999	57.99999999999999	0	0	1	-29.999999999999996	29.999999999999996								
	97	100	0.021910343703277935	0.052784009784501755	0.004349047050241094	512.0	512.0	512.0	0	0	1	-29.999999999999996	29.999999999999996								
	97	102	0.03679778964301709	0.08908938523047401	0.004347567783941686	295.0	295.0	295.0	0	0	1	-29.999999999999996	29.999999999999996								
	97	103	0.048603518165492215	0.12353394123019389	0.12037620956021074	224.00000000000003	224.00000000000003	224.00000000000003	0	0	1	-29.999999999999996	29.999999999999996								
	98	100	0.02410891548781091	0.06429044118752447	0.004349316875376542	430.0	430.0	430.0	0	0	1	-29.999999999999996	29.999999999999996								
	98	102	0.034122947750925316	0.12143754796669284	0.02794089590996285	234.0	234.0	234.0	0	0	1	-29.999999999999996	29.999999999999996								
	99	107	0.05321003282144197	0.13553498877063538	0.004350251260328005	202.99999999999997	202.99999999999997	202.99999999999997	0	0	1	-29.999999999999996	29.999999999999996								
	99	108	0.0020002376049539283	0.004000475209899087	0.04981375253985928	6559.0	6559.0	6559.0	0	0	1	-29.999999999999996	29.999999999999996								
	99	109	0.04638212732811818	0.36487243767961136	0.09793593673917818	83.0	83.0	83.0	0	0	1	-29.999999999999996	29.999999999999996								
	99	110	0.048813886709012023	0.1698723208533433	0.0043478921922244	163.0	163.0	163.0	0	0	1	-29.999999999999996	29.999999999999996								
	100	102	0.016064585879084277	0.03815339144469704	0.004352995200578845	712.0	712.0	712.0	0	0	1	-29.999999999999996	29.999999999999996								
	102	104	0.04343962746586429	0.06465432921058746	0.03269532570978294	381.0	381.0	381.0	0	0	1	-29.999999999999996	29.999999999999996								
	103	105	0.019137142567913674	0.062447517700525194	0.004351389068685658	453.0	453.0	453.0	0	0	1	-29.999999999999996	29.999999999999996								
	104	108	0.07584352569489385	0.12973234620563026	0.15024340694886837	195.0	195.0	195.0	0	0	1	-29.999999999999996	29.999999999999996								
	104	322	0.044029058306627136	0.12408189063864818	0.10544966340431403	223.0	223.0	223.0	0	0	1	-29.999999999999996	29.999999999999996								
	105	107	0.011977159491559355	0.08783250066058798	0.004358196752882498	331.0	331.0	331.0	0	0	1	-29.999999999999996	29.999999999999996								
	105	110	0.16574206757540547	0.4222727370931176	0.1321305812363908	69.0	69.0	69.0	0	0	1	-29.999999999999996	29.999999999999996								
	108	324	0.07386971781898914	0.20763379865640774	0.004374419366166054	133.0	133.0	133.0	0	0	1	-29.999999999999996	29.999999999999996								
	109	110	0.07343502914179326	0.19302921630453895	0.05217982247091941	149.0	149.0	149.0	0	0	1	-29.999999999999996	29.999999999999996								
	109	113	0.10130289689582334	0.27756991918392665	0.045039428373464335	101.0	101.0	101.0	0	0	1	-29.999999999999996	29.999999999999996								
	109	114	0.11037957123409611	0.3979739787739917	0.02935910632446908	72.0	72.0	72.0	0	0	1	-29.999999999999996	29.999999999999996								
	110	112	0.14397785978610494	0.4096271024643837	0.061882090600441204	69.0	69.0	69.0	0	0	1	-29.999999999999996	29.999999999999996								
	112	114	0.01705812955992685	0.042143614182876245	0.03465200981760901	648.0	648.0	648.0	0	0	1	-29.999999999999996	29.999999999999996								
	115	122	0.003583082052366239	0.019806481326023397	0.03621895734985334	1451.0	1451.0	1451.0	0	0	1	-29.999999999999996	29.999999999999996								
	116	120	0.001992594012409924	0.10451068676021279	0.004363114413333202	280.0	280.0	280.0	0	0	1	-29.999999999999996	29.999999999999996								
	117	118	9.99602692803919e-5	0.0017992848469658587	0.0043502862720988435	9900.0	16271.0	16271.0	0	0	1	-29.999999999999996	29.999999999999996								
	118	119	0.0001084117053135796	0.027125872015606723	0.004403788100456249	1083.0	1083.0	1083.0	0	0	1	-29.999999999999996	29.999999999999996								
	118	1201	0.06222652052540649	0.646899547022288	0.03022540979984175	48.0	48.0	48.0	0	0	1	-29.999999999999996	29.999999999999996								
	1201	120	0.15569080373098534	1.0161118642055122	0.004428914793993288	80.0	80.0	80.0	0	0	1	-29.999999999999996	29.999999999999996								
	118	121	0.15569063674173508	1.0161112720906311	0.004355051238069985	101.0	101.0	101.0	0	0	1	-29.999999999999996	29.999999999999996								
	119	120	0.0001686612300973539	0.0338338425945122	0.0043473309044530185	866.0	866.0	866.0	0	0	1	-29.999999999999996	29.999999999999996								
	119	121	0.0005008062123680808	0.058299914747657715	0.0627145226374833	504.0	504.0	504.0	0	0	1	-29.999999999999996	29.999999999999996								
	122	123	0.07929138804827425	0.23002352332993703	0.3852159654413195	119.0	119.0	119.0	0	0	1	-29.999999999999996	29.999999999999996								
	122	125	0.10284570600039715	0.3910267689760686	0.019710454349228326	78.0	78.0	78.0	0	0	1	-29.999999999999996	29.999999999999996								
	123	124	0.036009020385596495	0.10762696076513928	0.08044113187422793	259.0	259.0	259.0	0	0	1	-29.999999999999996	29.999999999999996								
	123	125	0.04557631045962905	0.13538845014385092	0.15962187810106832	197.0	197.0	197.0	0	0	1	-29.999999999999996	29.999999999999996								
	125	126	0.0006003818261766005	0.019712536226375532	0.08524480776525922	1489.0	1489.0	1489.0	0	0	1	-29.999999999999996	29.999999999999996								
	126	127	0.005857180638876031	0.0402060705504092	0.27480423817145927	717.0	717.0	717.0	1.0	0.0	1	-29.999999999999996	29.999999999999996								
	126	129	0.011271233732243414	0.10839986237327738	0.2059334380843817	264.0	264.0	264.0	1.0	0.0	1	-29.999999999999996	29.999999999999996								
	126	132	0.020027047776549477	0.1707355739875473	0.2963137555451621	173.0	173.0	173.0	1.0	0.0	1	-29.999999999999996	29.999999999999996								
	126	157	0.004982220586481598	0.049822205226802974	0.2704791732982341	584.0	584.0	584.0	1.0	0.0	1	-29.999999999999996	29.999999999999996								
	126	158	0.007748787871511227	0.05414088101567461	0.3369500042049883	540.0	540.0	540.0	1.0	0.0	1	-29.999999999999996	29.999999999999996								
	126	169	0.015814352766071734	0.11089215731023136	0.15899267151708316	250.99999999999997	250.99999999999997	250.99999999999997	1.0	0.0	1	-29.999999999999996	29.999999999999996								
	127	128	0.0058622439309760285	0.05733075743586178	0.10927328501401916	505.99999999999994	505.99999999999994	505.99999999999994	0	0	1	-29.999999999999996	29.999999999999996								
	127	134	0.004892774684303841	0.03355045501491054	0.1605232077520713	864.0	864.0	864.0	0	0	1	-29.999999999999996	29.999999999999996								
	127	168	0.005944727571386394	0.05813741943561946	0.10382682065709228	505.99999999999994	505.99999999999994	505.99999999999994	0	0	1	-29.999999999999996	29.999999999999996								
	128	130	0.007656392141575832	0.07587680575148877	0.10427844580370788	378.0	378.0	378.0	0	0	1	-29.999999999999996	29.999999999999996								
	128	133	0.002610542885433435	0.019378260633196472	0.01637786785787118	1507.0	1507.0	1507.0	0	0	1	-29.999999999999996	29.999999999999996								
	129	130	0.0076135790608033785	0.07533435787334618	0.04549648644077706	389.0	389.0	389.0	0	0	1	-29.999999999999996	29.999999999999996								
	129	133	0.0021036827921184073	0.018632618994600916	0.06625213226820122	1568.0	1568.0	1568.0	0	0	1	-29.999999999999996	29.999999999999996								
...
];

%%-----  OPF Data  -----%%
%% cost data
%    1    startup    shutdown    n    x1    y1    ...    xn    yn
%    2    startup    shutdown    n    c(n-1)    ...    c0
mpc.gencost = [
	2	0.0	0.0	2	0.0	0.0
	2	0.0	0.0	2	0.0	0.0
	2	0.0	0.0	2	0.0	0.0
	2	0.0	0.0	2	0.0	0.0
	2	0.0	0.0	2	0.0	0.0
	2	0.0	0.0	2	22.409835000000005	0.0
	2	0.0	0.0	2	46.100054	0.0
	2	0.0	0.0	2	54.164939	0.0
	2	0.0	0.0	2	27.238416	0.0
	2	0.0	0.0	2	38.430722	0.0
	2	0.0	0.0	2	7.698908	0.0
	2	0.0	0.0	2	26.754128	0.0
	2	0.0	0.0	2	0.0	0.0
	2	0.0	0.0	2	0.0	0.0
	2	0.0	0.0	2	30.597916	0.0
	2	0.0	0.0	2	30.758666000000005	0.0
	2	0.0	0.0	2	19.292281	0.0
	2	0.0	0.0	2	49.861855	0.0
	2	0.0	0.0	2	35.842363	0.0
	2	0.0	0.0	2	34.955965	0.0
	2	0.0	0.0	2	22.762722	0.0
	2	0.0	0.0	2	0.0	0.0
	2	0.0	0.0	2	35.375974	0.0
	2	0.0	0.0	2	0.0	0.0
	2	0.0	0.0	2	33.868524	0.0
	2	0.0	0.0	2	29.031265000000005	0.0
	2	0.0	0.0	2	28.391517	0.0
	2	0.0	0.0	2	1.000203	0.0
	2	0.0	0.0	2	27.278538000000005	0.0
	2	0.0	0.0	2	49.15571	0.0
	2	0.0	0.0	2	24.062655	0.0
	2	0.0	0.0	2	31.016664000000002	0.0
	2	0.0	0.0	2	49.721799000000004	0.0
	2	0.0	0.0	2	21.291665	0.0
	2	0.0	0.0	2	31.437031	0.0
	2	0.0	0.0	2	50.842869	0.0
	2	0.0	0.0	2	28.01046	0.0
	2	0.0	0.0	2	39.828572	0.0
	2	0.0	0.0	2	35.650779	0.0
	2	0.0	0.0	2	32.621266	0.0
	2	0.0	0.0	2	39.657688	0.0
	2	0.0	0.0	2	41.223312	0.0
	2	0.0	0.0	2	39.064721	0.0
	2	0.0	0.0	2	116.939409	0.0
	2	0.0	0.0	2	34.336562	0.0
	2	0.0	0.0	2	38.274878	0.0
	2	0.0	0.0	2	23.466762	0.0
	2	0.0	0.0	2	7.509959	0.0
	2	0.0	0.0	2	26.682965	0.0
	2	0.0	0.0	2	28.434868	0.0
	2	0.0	0.0	2	35.126651	0.0
	2	0.0	0.0	2	51.062397000000004	0.0
	2	0.0	0.0	2	29.992015	0.0
	2	0.0	0.0	2	103.987496	0.0
	2	0.0	0.0	2	38.825689	0.0
	2	0.0	0.0	2	6.843072000000001	0.0
	2	0.0	0.0	2	29.772562000000004	0.0
	2	0.0	0.0	2	62.42710300000001	0.0
	2	0.0	0.0	2	20.811515	0.0
	2	0.0	0.0	2	26.50789	0.0
	2	0.0	0.0	2	31.587517	0.0
	2	0.0	0.0	2	29.759924	0.0
	2	0.0	0.0	2	36.179055	0.0
	2	0.0	0.0	2	36.908367	0.0
	2	0.0	0.0	2	0.0	0.0
	2	0.0	0.0	2	0.0	0.0
	2	0.0	0.0	2	0.0	0.0
	2	0.0	0.0	2	32.961473	0.0
	2	0.0	0.0	2	94.758209	0.0
];

